*load regulation
.include ../AE01.05.16.006.cir
.step param VIN 4 10 1
.param ILOAD=0.1
.param Radj=9.31K
.param Rref=5.62K
.param Ren=51K
.param x_base=2m
.tran 0 {x_base} 0 100n uic
.backanno
